@<TRIPOS>MOLECULE
*****
 60 63 0 0 0
SMALL
GASTEIGER

@<TRIPOS>ATOM
      1 C           1.2884   -0.1150   -0.7935 C.3     1  UNL1        0.0790
      2 O           2.6710   -0.0223   -0.4721 O.3     1  UNL1       -0.4914
      3 C           3.1798    0.8051    0.4930 C.ar    1  UNL1        0.1617
      4 C           4.4056    1.4352    0.1728 C.ar    1  UNL1       -0.0131
      5 C           5.1898    2.1778    1.1271 C.ar    1  UNL1       -0.0195
      6 C           4.8369    2.2000    2.4701 C.ar    1  UNL1        0.1035
      7 N           5.3964    3.0501    3.4851 N.pl3   1  UNL1       -0.2449
      8 C           4.9071    3.3399    4.7808 C.2     1  UNL1        0.3842
      9 N           3.8227    2.9698    5.4074 N.am    1  UNL1        0.0006
     10 C           2.6929    2.7452    4.6614 C.2     1  UNL1        0.3406
     11 O           2.3514    3.4576    3.7531 O.2     1  UNL1       -0.2484
     12 C           1.6670    1.8163    5.2365 C.ar    1  UNL1        0.0575
     13 C           1.5107    0.4273    5.0362 C.ar    1  UNL1       -0.0480
     14 C           0.2306   -0.1425    5.1430 C.ar    1  UNL1       -0.0596
     15 C          -0.8431    0.6410    5.5603 C.ar    1  UNL1       -0.0433
     16 C          -0.6378    1.9818    5.8696 C.ar    1  UNL1        0.0417
     17 CL         -1.9244    2.9818    6.3969 Cl      1  UNL1       -0.0835
     18 C           0.5996    2.5671    5.6953 C.ar    1  UNL1       -0.0297
     19 N           5.7142    4.1936    5.5580 N.pl3   1  UNL1       -0.2767
     20 C           5.1445    4.7376    6.8258 C.3     1  UNL1        0.0684
     21 C           6.0309    5.7467    7.5575 C.3     1  UNL1        0.0059
     22 C           5.5866    6.1960    8.9367 C.2     1  UNL1        0.0106
     23 C           6.3669    6.9532    9.7162 C.ar    1  UNL1        0.0510
     24 C           7.6702    7.4853    9.5204 C.ar    1  UNL1       -0.0482
     25 C           8.2851    8.0577   10.5631 C.ar    1  UNL1       -0.0608
     26 C           7.6041    8.2504   11.8351 C.ar    1  UNL1       -0.0555
     27 C           6.3367    7.8546   12.0723 C.ar    1  UNL1        0.0098
     28 C           5.6412    7.1416   10.9820 C.ar    1  UNL1        0.2086
     29 N           4.4828    6.6041   10.9474 N.2     1  UNL1       -0.2369
     30 C           4.3126    5.8475    9.6720 C.3     1  UNL1        0.1661
     31 C           3.8273    1.2995    2.7427 C.ar    1  UNL1        0.0222
     32 C           2.8384    0.8676    1.8196 C.ar    1  UNL1        0.1647
     33 O           1.6590    0.6952    2.4638 O.3     1  UNL1       -0.4913
     34 C           0.5734   -0.0000    1.9330 C.3     1  UNL1        0.0790
     35 H           1.1849   -0.6700   -1.7288 H       1  UNL1        0.0660
     36 H           0.8173    0.8658   -0.8964 H       1  UNL1        0.0660
     37 H           0.7157   -0.7721   -0.1426 H       1  UNL1        0.0660
     38 H           4.7623    1.3612   -0.8529 H       1  UNL1        0.0656
     39 H           6.0983    2.6629    0.7826 H       1  UNL1        0.0653
     40 H           6.1261    3.6515    3.1294 H       1  UNL1        0.2646
     41 H           2.2787   -0.2096    4.5932 H       1  UNL1        0.0626
     42 H           0.0416   -1.1524    4.7689 H       1  UNL1        0.0618
     43 H          -1.8413    0.2164    5.6032 H       1  UNL1        0.0632
     44 H           0.7344    3.6398    5.7931 H       1  UNL1        0.0640
     45 H           6.3678    4.8009    5.0764 H       1  UNL1        0.2577
     46 H           4.9821    3.8932    7.5038 H       1  UNL1        0.0658
     47 H           4.1737    5.2216    6.6463 H       1  UNL1        0.0658
     48 H           6.1404    6.6489    6.9403 H       1  UNL1        0.0343
     49 H           7.0332    5.3108    7.6573 H       1  UNL1        0.0343
     50 H           8.1557    7.3825    8.5561 H       1  UNL1        0.0626
     51 H           9.3147    8.3932   10.4645 H       1  UNL1        0.0618
     52 H           8.1809    8.7665   12.6011 H       1  UNL1        0.0620
     53 H           5.8687    8.0244   13.0352 H       1  UNL1        0.0683
     54 H           3.8130    6.6848   11.7124 H       1  UNL1        0.4459
     55 H           3.4015    6.1938    9.1804 H       1  UNL1        0.1077
     56 H           4.2513    4.7865    9.9350 H       1  UNL1        0.1077
     57 H           3.7428    0.9715    3.7649 H       1  UNL1        0.0690
     58 H          -0.2145   -0.1693    2.6676 H       1  UNL1        0.0660
     59 H           0.9293   -0.9968    1.6756 H       1  UNL1        0.0660
     60 H           0.0789    0.6052    1.1728 H       1  UNL1        0.0660
@<TRIPOS>UNITY_ATOM_ATTR
29 1
charge 1
@<TRIPOS>BOND
     1     1     2    1
     2     2     3    1
     3     3     4   ar
     4     4     5   ar
     5     5     6   ar
     6     6     7    1
     7     7     8    1
     8     8     9    2
     9     9    10    1
    10    10    11    2
    11    10    12    1
    12    12    13   ar
    13    13    14   ar
    14    14    15   ar
    15    15    16   ar
    16    16    17    1
    17    16    18   ar
    18    12    18   ar
    19     8    19    1
    20    19    20    1
    21    20    21    1
    22    21    22    1
    23    22    23    2
    24    23    24   ar
    25    24    25   ar
    26    25    26   ar
    27    26    27   ar
    28    27    28   ar
    29    23    28   ar
    30    28    29    2
    31    29    30    1
    32    22    30    1
    33     6    31   ar
    34    31    32   ar
    35     3    32   ar
    36    32    33    1
    37    33    34    1
    38     1    35    1
    39     1    36    1
    40     1    37    1
    41     4    38    1
    42     5    39    1
    43     7    40    1
    44    13    41    1
    45    14    42    1
    46    15    43    1
    47    18    44    1
    48    19    45    1
    49    20    46    1
    50    20    47    1
    51    21    48    1
    52    21    49    1
    53    24    50    1
    54    25    51    1
    55    26    52    1
    56    27    53    1
    57    29    54    1
    58    30    55    1
    59    30    56    1
    60    31    57    1
    61    34    58    1
    62    34    59    1
    63    34    60    1
